[TITLE]
;;Project Title/Notes
Subcatchment imperviousness 100%
Subcatchment width -100%

[OPTIONS]
;;Option             Value
FLOW_UNITS           CFS
INFILTRATION         GREEN_AMPT
FLOW_ROUTING         DYNWAVE
LINK_OFFSETS         DEPTH
MIN_SLOPE            0
ALLOW_PONDING        NO
SKIP_STEADY_STATE    NO

START_DATE           01/01/2010
START_TIME           00:00:00
REPORT_START_DATE    01/01/2010
REPORT_START_TIME    00:00:00
END_DATE             12/31/2020
END_TIME             23:00:00
SWEEP_START          01/01
SWEEP_END            12/31
DRY_DAYS             0
REPORT_STEP          00:05:00
WET_STEP             00:05:00
DRY_STEP             00:05:00
ROUTING_STEP         0:00:05 
RULE_STEP            00:00:00

INERTIAL_DAMPING     PARTIAL
NORMAL_FLOW_LIMITED  BOTH
FORCE_MAIN_EQUATION  H-W
VARIABLE_STEP        0.75
LENGTHENING_STEP     0
MIN_SURFAREA         12.566
MAX_TRIALS           8
HEAD_TOLERANCE       0.005
SYS_FLOW_TOL         5
LAT_FLOW_TOL         5
MINIMUM_STEP         0.5
THREADS              6

[EVAPORATION]
;;Data Source    Parameters
;;-------------- ----------------
CONSTANT         0.0
DRY_ONLY         NO

[RAINGAGES]
;;Name           Format    Interval SCF      Source    
;;-------------- --------- ------ ------ ----------
Raingage1        VOLUME    1:00     1        FILE       "Raingage2.dat"  Raingage1  IN   

[SUBCATCHMENTS]
;;Name           Rain Gage        Outlet           Area     %Imperv  Width    %Slope   CurbLen  SnowPack        
;;-------------- ---------------- ---------------- -------- -------- -------- -------- -------- ----------------
B-1              Raingage1        B1               0.6352   392      32.922   3        0                        
B-10             Raingage1        B10              0.4746   510.576  32.922   0.155    0                        
B-11             Raingage1        B11              0.72     392      32.922   3        0                        
B-11.1           Raingage1        B-11             0.6963   392      32.922   1.5      0                        
B-12             Raingage1        B12              0.3704   510.576  32.922   3        0                        
B-13             Raingage1        B13              0.8326   392      32.922   3        0                        
B-13.1           Raingage1        B-13             0.9232   392      32.922   1.5      0                        
B-13.2           Raingage1        B-13             0.9      392      32.922   1.5      0                        
B-2              Raingage1        B2               1.88     159.552  32.922   0.155    0                        
B-3              Raingage1        B3               0.8014   392      32.922   3        0                        
B-4              Raingage1        B4               1.8887   392      32.922   3        0                        
B-5              Raingage1        B5               1.4236   392      32.922   3        0                        
B-6              Raingage1        B6               1.209    392      32.922   3        0                        
B-6.1            Raingage1        B-6              0.9516   392      32.922   1.5      0                        
B-7              Raingage1        B7               0.8006   392      32.922   3        0                        
B-8              Raingage1        B8               0.8168   510.576  32.922   3        0                        
B-9              Raingage1        B9               1.671    510.576  32.922   3        0                        
Basin_Catchment  Raingage1        Pond_1           2.13     392      32.922   5        0                        
C-1              Raingage1        C1               1.1036   392      32.922   3        0                        
C-10             Raingage1        C10              1.64     392      21.992   3        0                        
C-11             Raingage1        C11              1.31     392      23.045   3        0                        
C-12             Raingage1        C12              0.5947   392      32.922   3        0                        
C-13             Raingage1        C13              0.62     159.552  32.922   0.155    0                        
C-14             Raingage1        C14              0.56     159.552  32.922   0.155    0                        
C-15             Raingage1        C15              0.1897   510.576  32.922   0.155    0                        
C-16             Raingage1        C16              1.67     159.552  32.922   7.5      0                        
C-17             Raingage1        C17              0.6      159.552  32.922   0.155    0                        
C-18             Raingage1        C18              0.67     159.552  32.922   0.155    0                        
C-19             Raingage1        C19              0.5      159.552  32.922   0.155    0                        
C-2              Raingage1        C2               0.8      159.552  32.922   0.155    0                        
C-20             Raingage1        C20              0.6      159.552  32.922   0.155    0                        
C-21             Raingage1        C21              0.3019   159.552  32.922   0.155    0                        
C-22             Raingage1        C22              0.22     159.552  32.922   0.155    0                        
C-23             Raingage1        C23              1.4886   159.552  32.922   0.155    0                        
C-24             Raingage1        C24              0.25     510.576  32.922   0.155    0                        
C-25             Raingage1        C25              1.16     159.552  32.922   0.155    0                        
C-26             Raingage1        C26              0.2045   159.552  32.922   0.155    0                        
C-27             Raingage1        C27              1.1337   510.576  32.922   0.155    0                        
C-28             Raingage1        C28              0.7173   510.576  32.922   0.155    0                        
C-29             Raingage1        C29              1.3392   159.552  32.922   0.155    0                        
C-3              Raingage1        C3               0.0536   510.576  32.922   0.155    0                        
C-4              Raingage1        C4               0.0903   510.576  32.922   0.155    0                        
C-5              Raingage1        C5               1.25     510.576  32.922   0.155    0                        
C-6              Raingage1        C6               0.6227   159.552  32.922   0.155    0                        
C-7              Raingage1        C7               0.1872   392      32.922   0.155    0                        
C-8              Raingage1        C8               0.216    392      32.922   0.155    0                        
C-9              Raingage1        C9               1.8992   159.552  32.922   2        0                        
D-3              Raingage1        D3               6.6382   392      32.922   1.5      0                        
Offsite_Left_1   Raingage1        J2               0.8303   237.434  320      25       0                        
Offsite_Left_2   Raingage1        Jun8             0.7105   237.434  320      25       0                        
Offsite_Left_3   Raingage1        Jun2             0.6974   237.434  320      25       0                        
Offsite_Right_1  Raingage1        SUB28            0.319    237.434  96       0.5      0                        
Offsite_Right_2  Raingage1        SUB29            0.2768   237.434  96       0.5      0                        
Offsite_Right_3  Raingage1        SUB30            0.6825   237.434  96       0.5      0                        
Offsite_Right_4  Raingage1        SUB31            0.9631   237.434  96       0.5      0                        
Parking_Central_1 Raingage1        SUB9             0.119    678.387  320      0.5      0                        
Parking_Central_2 Raingage1        SUB5             0.1018   678.387  320      0.5      0                        
Parking_North    Raingage1        SUB5             0.0955   678.387  320      0.5      0                        
Parking_South_1  Raingage1        SUB8             0.1219   678.387  320      0.5      0                        
Parking_South_2  Raingage1        SUB9             0.0827   678.387  320      0.5      0                        
Pond3            Raingage1        Pond_3           0.0744   98       250      0.5      0                        
Pond_Hillslope_East Raingage1        Pond_Surface     0.3112   271.354  320      25       0                        
Pond_Hillslope_West Raingage1        Pond_Surface     0.3454   271.354  320      25       0                        
Pond_Surface     Raingage1        Pond_2           0.1968   678.387  320      0.5      0                        
Pond4            Raingage1        Pond_4           0.0609   98       250      0.5      0                        
S1               Raingage1        112253           41.7519  208.191  764.646  3.312    0                        
S10              Raingage1        J174             3.0252   98       250      4.044    0                        
S11              Raingage1        Pond_4           0.1327   98       250      0.5      0                        
S12              Raingage1        J351             27.8579  163.856  203.169  5.494    0                        
S13              Raingage1        Pond_4           0.1581   98       250      0.5      0                        
S14              Raingage1        106229           29.3598  146.922  1000.434 4.585    0                        
S15              Raingage1        Pond_3           0.5517   98       250      0.5      0                        
S16              Raingage1        Pond_3           0.428    98       250      0.5      0                        
S19              Raingage1        106232           13.9099  119.521  153.056  7.98     0                        
S2               Raingage1        J206             29.3268  150.724  337.967  2.671    0                        
S21              Raingage1        Pond3_inlet      14.8854  241.629  845.774  2.96     0                        
S22              Raingage1        106225           39.7148  134.73   1220.325 4.119    0                        
S23              Raingage1        J274             37.5116  143.041  922.437  8.465    0                        
S25              Raingage1        Pond2_Inlet      5.6998   73.265   474.694  4.044    0                        
S26              Raingage1        J440             18.1289  86.671   385.21   5.714    0                        
S28              Raingage1        J541             24.9181  133.398  570.769  6.344    0                        
S29              Raingage1        J287             17.1459  79.066   459.798  5.546    0                        
S3               Raingage1        111739           29.2503  172.323  429.866  2.845    0                        
S32              Raingage1        105787           21.2926  109.878  203.975  4.413    0                        
S36              Raingage1        106199           26.3592  207.446  434.069  4.382    0                        
S37              Raingage1        J281             24.7939  67.071   632.683  3.791    0                        
S4               Raingage1        111748           31.6327  134.064  305.203  4.988    0                        
S40              Raingage1        106170           17.0789  178.36   272.904  5.692    0                        
S42              Raingage1        106166           6.0959   231.554  336.188  4.808    0                        
S46              Raingage1        105796           20.8268  49.588   367.11   4.766    0                        
S47              Raingage1        105801           13.6244  89.886   646.321  2.464    0                        
S49              Raingage1        J399             32.4292  43.198   452.357  4.123    0                        
S5               Raingage1        111820           60.6124  158.486  716.942  2.91     0                        
S51              Raingage1        105811           30.2625  73.735   339.882  6.491    0                        
S52              Raingage1        J346             15.6661  48.569   280.606  3.794    0                        
S56              Raingage1        105807           23.0619  70.991   604.31   3.647    0                        
S57              Raingage1        J434             21.348   48.647   440.188  5.097    0                        
S6               Raingage1        J481             68.1187  172.637  692.107  6.753    0                        
S7               Raingage1        J203             34.6457  124.578  627.197  3.038    0                        
S8               Raingage1        111858           31.857   150.998  828.817  5.136    0                        
S9               Raingage1        111797           25.6323  138.376  524.732  2.556    0                        
SUB13            Raingage1        CB-13            0.0456   678.387  320      0.5      0                        
SUB14            Raingage1        CB-14            0.0756   678.387  320      0.5      0                        
SUB15            Raingage1        SUB14            0.0829   67.84    320      0.5      0                        
SUB16            Raingage1        SUB13            0.0455   678.387  320      0.5      0                        
SUB17            Raingage1        SUB14            0.0728   678.387  320      0.5      0                        
SUB18            Raingage1        SUB17            0.1962   67.84    320      0.5      0                        
SUB19            Raingage1        SUB22            0.0456   678.387  320      0.5      0                        
SUB20            Raingage1        SUB21            0.0367   678.387  320      0.5      0                        
SUB21            Raingage1        SUB23            0.0784   678.387  320      0.5      0                        
SUB22            Raingage1        SUB23            0.023    678.387  320      0.5      0                        
SUB23            Raingage1        SUB17            0.0756   678.387  320      0.5      0                        
SUB24            Raingage1        SUB16            0.0882   678.387  320      0.5      0                        
SUB25            Raingage1        SUB24            0.0824   678.387  320      0.5      0                        
SUB26            Raingage1        SUB25            0.0509   678.387  320      0.5      0                        
SUB27            Raingage1        SUB23            0.1021   169.595  320      20       0                        
SUB28            Raingage1        Jun2             0.0257   0        320      10       0                        
SUB29            Raingage1        Jun3             0.04     0        320      10       0                        
SUB30            Raingage1        Jun4             0.063    0        320      10       0                        
SUB31            Raingage1        Jun5             0.065    0        320      10       0                        
SUB39            Raingage1        Jun7             0.1382   0        320      20       0                        
SUB4             Raingage1        AD-8             0.0476   271.354  320      10       0                        
SUB40            Raingage1        SUB29            0.0248   0        320      20       0                        
SUB41            Raingage1        Jun9             0.1733   169.595  320      20       0                        
SUB5             Raingage1        AD-9             0.0831   271.354  320      5        0                        
SUB6             Raingage1        AD-8             0.2194   271.354  320      10       0                        
SUB8             Raingage1        SUB6             0.1176   271.354  320      5        0                        
SUB9             Raingage1        SUB6             0.0778   271.354  320      5        0                        

[SUBAREAS]
;;Subcatchment   N-Imperv   N-Perv     S-Imperv   S-Perv     PctZero    RouteTo    PctRouted 
;;-------------- ---------- ---------- ---------- ---------- ---------- ---------- ----------
B-1              0.015      0.1        0.1        0.05       50         OUTLET    
B-10             0.019      0.1        0.05       0.05       16.667     OUTLET    
B-11             0.015      0.1        0.1        0.05       50         OUTLET    
B-11.1           0.011      0.1        0.1        0.05       33.333     OUTLET    
B-12             0.015      0.1        0.05       0.05       16.667     OUTLET    
B-13             0.015      0.1        0.1        0.05       50         OUTLET    
B-13.1           0.011      0.1        0.1        0.05       33.333     OUTLET    
B-13.2           0.011      0.1        0.1        0.05       33.333     OUTLET    
B-2              0.019      0.035      0.05       0.3        16.667     OUTLET    
B-3              0.015      0.1        0.1        0.05       50         OUTLET    
B-4              0.015      0.1        0.1        0.05       50         OUTLET    
B-5              0.015      0.1        0.1        0.05       50         OUTLET    
B-6              0.015      0.1        0.1        0.05       50         OUTLET    
B-6.1            0.011      0.1        0.1        0.05       33.333     OUTLET    
B-7              0.015      0.1        0.1        0.05       50         OUTLET    
B-8              0.019      0.1        0.05       0.05       16.667     OUTLET    
B-9              0.019      0.1        0.05       0.05       16.667     OUTLET    
Basin_Catchment  0.019      0.1        0.05       0.05       66.667     OUTLET    
C-1              0.015      0.1        0.1        0.05       50         OUTLET    
C-10             0.015      0.1        0.1        0.05       50         OUTLET    
C-11             0.015      0.1        0.1        0.05       50         OUTLET    
C-12             0.015      0.1        0.1        0.05       50         OUTLET    
C-13             0.019      0.035      0.05       0.3        16.667     OUTLET    
C-14             0.019      0.035      0.05       0.3        16.667     OUTLET    
C-15             0.019      0.1        0.05       0.05       16.667     OUTLET    
C-16             0.019      0.035      0.05       0.3        16.667     OUTLET    
C-17             0.019      0.035      0.1        0.3        16.667     OUTLET    
C-18             0.019      0.035      0.05       0.3        16.667     OUTLET    
C-19             0.019      0.035      0.05       0.3        16.667     OUTLET    
C-2              0.019      0.035      0.05       0.3        16.667     OUTLET    
C-20             0.019      0.035      0.05       0.3        16.667     OUTLET    
C-21             0.019      0.035      0.05       0.3        16.667     OUTLET    
C-22             0.019      0.035      0.05       0.3        16.667     OUTLET    
C-23             0.019      0.035      0.05       0.3        16.667     OUTLET    
C-24             0.019      0.1        0.05       0.25       16.667     OUTLET    
C-25             0.019      0.035      0.05       0.25       16.667     OUTLET    
C-26             0.019      0.035      0.05       0.3        16.667     OUTLET    
C-27             0.019      0.1        0.05       0.25       16.667     OUTLET    
C-28             0.019      0.1        0.05       0.25       16.667     OUTLET    
C-29             0.019      0.035      0.05       0.3        16.667     OUTLET    
C-3              0.019      0.1        0.1        0.05       16.667     OUTLET    
C-4              0.019      0.1        0.1        0.05       16.667     OUTLET    
C-5              0.019      0.1        0.1        0.25       16.667     OUTLET    
C-6              0.019      0.035      0.05       0.3        16.667     OUTLET    
C-7              0.015      0.1        0.1        0.05       50         OUTLET    
C-8              0.015      0.1        0.1        0.05       50         OUTLET    
C-9              0.015      0.035      0.05       0.3        16.667     OUTLET    
D-3              0.011      0.1        0.05       0.05       50         OUTLET    
Offsite_Left_1   0.01       0.1        0.05       0.05       25         OUTLET    
Offsite_Left_2   0.01       0.1        0.05       0.05       25         OUTLET    
Offsite_Left_3   0.01       0.1        0.05       0.05       25         OUTLET    
Offsite_Right_1  0.01       0.1        0.05       0.05       25         OUTLET    
Offsite_Right_2  0.01       0.1        0.05       0.05       25         OUTLET    
Offsite_Right_3  0.01       0.1        0.05       0.05       25         OUTLET    
Offsite_Right_4  0.01       0.1        0.05       0.05       25         OUTLET    
Parking_Central_1 0.01       0.1        0.05       0.05       100        OUTLET    
Parking_Central_2 0.01       0.1        0.05       0.05       100        OUTLET    
Parking_North    0.01       0.1        0.05       0.05       100        OUTLET    
Parking_South_1  0.01       0.1        0.05       0.05       100        OUTLET    
Parking_South_2  0.01       0.1        0.05       0.05       100        OUTLET    
Pond3            0.01       0.1        0.05       0.05       25         OUTLET    
Pond_Hillslope_East 0.01       0.1        0.05       0.05       25         OUTLET    
Pond_Hillslope_West 0.01       0.1        0.05       0.05       25         OUTLET    
Pond_Surface     0.01       0.1        0.05       0.05       100        OUTLET    
Pond4            0.01       0.1        0.05       0.05       25         OUTLET    
S1               0.01       0.1        0.05       0.05       25         OUTLET    
S10              0.01       0.1        0.05       0.05       25         OUTLET    
S11              0.01       0.1        0.05       0.05       25         OUTLET    
S12              0.01       0.1        0.05       0.05       25         OUTLET    
S13              0.01       0.1        0.05       0.05       25         OUTLET    
S14              0.01       0.1        0.05       0.05       25         OUTLET    
S15              0.01       0.1        0.05       0.05       25         OUTLET    
S16              0.01       0.1        0.05       0.05       25         OUTLET    
S19              0.01       0.1        0.05       0.05       25         OUTLET    
S2               0.01       0.1        0.05       0.05       25         OUTLET    
S21              0.01       0.1        0.05       0.05       25         OUTLET    
S22              0.01       0.1        0.05       0.05       25         OUTLET    
S23              0.01       0.1        0.05       0.05       25         OUTLET    
S25              0.01       0.1        0.05       0.05       25         OUTLET    
S26              0.01       0.1        0.05       0.05       25         OUTLET    
S28              0.01       0.1        0.05       0.05       25         OUTLET    
S29              0.01       0.1        0.05       0.05       25         OUTLET    
S3               0.01       0.1        0.05       0.05       25         OUTLET    
S32              0.01       0.1        0.05       0.05       25         OUTLET    
S36              0.01       0.1        0.05       0.05       25         OUTLET    
S37              0.01       0.1        0.05       0.05       25         OUTLET    
S4               0.01       0.1        0.05       0.05       25         OUTLET    
S40              0.01       0.1        0.05       0.05       25         OUTLET    
S42              0.01       0.1        0.05       0.05       25         OUTLET    
S46              0.01       0.1        0.05       0.05       25         OUTLET    
S47              0.01       0.1        0.05       0.05       25         OUTLET    
S49              0.01       0.1        0.05       0.05       25         OUTLET    
S5               0.01       0.1        0.05       0.05       25         OUTLET    
S51              0.01       0.1        0.05       0.05       25         OUTLET    
S52              0.01       0.1        0.05       0.05       25         OUTLET    
S56              0.01       0.1        0.05       0.05       25         OUTLET    
S57              0.01       0.1        0.05       0.05       25         OUTLET    
S6               0.01       0.1        0.05       0.05       25         OUTLET    
S7               0.01       0.1        0.05       0.05       25         OUTLET    
S8               0.01       0.1        0.05       0.05       25         OUTLET    
S9               0.01       0.1        0.05       0.05       25         OUTLET    
SUB13            0.01       0.1        0.05       0.05       100        OUTLET    
SUB14            0.01       0.1        0.05       0.05       100        OUTLET    
SUB15            0.01       0.1        0.05       0.05       25         OUTLET    
SUB16            0.01       0.1        0.05       0.05       100        OUTLET    
SUB17            0.01       0.1        0.05       0.05       100        OUTLET    
SUB18            0.01       0.1        0.05       0.05       25         OUTLET    
SUB19            0.01       0.1        0.05       0.05       100        OUTLET    
SUB20            0.01       0.1        0.05       0.05       100        OUTLET    
SUB21            0.01       0.1        0.05       0.05       100        OUTLET    
SUB22            0.01       0.1        0.05       0.05       100        OUTLET    
SUB23            0.01       0.1        0.05       0.05       100        OUTLET    
SUB24            0.01       0.1        0.05       0.05       100        OUTLET    
SUB25            0.01       0.1        0.05       0.05       100        OUTLET    
SUB26            0.01       0.1        0.05       0.05       100        OUTLET    
SUB27            0.01       0.1        0.05       0.05       25         OUTLET    
SUB28            0.01       0.1        0.05       0.05       25         OUTLET    
SUB29            0.01       0.1        0.05       0.05       25         OUTLET    
SUB30            0.01       0.1        0.05       0.05       25         OUTLET    
SUB31            0.01       0.1        0.05       0.05       25         OUTLET    
SUB39            0.01       0.1        0.05       0.05       25         OUTLET    
SUB4             0.01       0.1        0.05       0.05       25         OUTLET    
SUB40            0.01       0.1        0.05       0.05       25         OUTLET    
SUB41            0.01       0.1        0.05       0.05       25         OUTLET    
SUB5             0.01       0.1        0.05       0.05       25         OUTLET    
SUB6             0.01       0.1        0.05       0.05       25         OUTLET    
SUB8             0.01       0.1        0.05       0.05       25         OUTLET    
SUB9             0.01       0.1        0.05       0.05       25         OUTLET    

[INFILTRATION]
;;Subcatchment   Suction    Ksat       IMD       
;;-------------- ---------- ---------- ----------
B-1              10.75      0.027      0.25      
B-10             3.5        0.087      0.25      
B-11             10.75      0.027      0.25      
B-11.1           3.5        0.087      0.25      
B-12             3.5        0.087      0.25      
B-13             10.75      0.027      0.25      
B-13.1           10.75      0.027      0.25      
B-13.2           3.5        0.087      0.25      
B-2              6.57       0.173      0.45      
B-3              6.57       0.173      0.25      
B-4              6.57       0.173      0.25      
B-5              6.57       0.173      0.25      
B-6              6.57       0.173      0.25      
B-6.1            3.5        0.087      0.25      
B-7              3.5        0.087      0.25      
B-8              3.5        0.087      0.25      
B-9              3.5        0.087      0.25      
Basin_Catchment  0.01       0.01       0         
C-1              6.57       0.173      0.25      
C-10             12.45      0.008      0.25      
C-11             3.5        0.087      0.25      
C-12             3.5        0.087      0.25      
C-13             6.57       0.173      0.45      
C-14             12.45      0.008      0.45      
C-15             12.45      0.008      0.25      
C-16             3.5        0.087      0.45      
C-17             6.57       0.173      0.45      
C-18             6.57       0.173      0.45      
C-19             12.45      0.008      0.45      
C-2              6.57       0.173      0.45      
C-20             12.45      0.008      0.45      
C-21             12.45      0.008      0.45      
C-22             12.45      0.008      0.45      
C-23             12.45      0.008      0.45      
C-24             6.57       0.173      0.25      
C-25             6.57       0.173      0.25      
C-26             6.57       0.173      0.45      
C-27             12.45      0.008      0.25      
C-28             12.45      0.008      0.25      
C-29             12.45      0.008      0.45      
C-3              12.45      0.008      0.25      
C-4              12.45      0.008      0.25      
C-5              12.45      0.008      0.25      
C-6              12.45      0.008      0.45      
C-7              12.45      0.008      0.25      
C-8              12.45      0.008      0.25      
C-9              12.45      0.008      0.45      
D-3              3.5        0.087      0.25      
Offsite_Left_1   6.365      0.208      0.092     
Offsite_Left_2   6.365      0.208      0.092     
Offsite_Left_3   6.365      0.208      0.092     
Offsite_Right_1  7.938      0.208      0.092     